<?xml version="1.0" encoding="utf-8"?>
<!DOCTYPE network SYSTEM "http://www.matsim.org/files/dtd/network_v2.dtd">

<network name="simpleNetwork">
   <nodes>
      <node id="from" x="0" y="0"/>
      <node id="to" x="20" y="0"/>
   </nodes>
   <links>
         <link id="link" from="from" to="to" length="60" freespeed="12.5" capacity="600.0" permlanes="1.0">
         <attributes>
            <attribute name="origgeom" class="java.lang.String">intermediate_1,0,20 intermediate_2,20,20</attribute>
         </attributes>
      </link>
   </links>
</network>
